*SPEF "ieee 1481-1999"
*DESIGN "user_project_wrapper"
*DATE "11:11:11 Fri 11 11, 1111"
*VENDOR "OpenRCX"
*PROGRAM "Parallel Extraction"
*VERSION "1.0"
*DESIGN_FLOW "NAME_SCOPE LOCAL" "PIN_CAP NONE"
*DIVIDER /
*DELIMITER :
*BUS_DELIMITER []
*T_UNIT 1 NS
*C_UNIT 1 PF
*R_UNIT 1 OHM
*L_UNIT 1 HENRY

*NAME_MAP
*1 io_in[0]
*2 io_in[10]
*3 io_in[11]
*4 io_in[12]
*5 io_in[13]
*6 io_in[14]
*7 io_in[15]
*8 io_in[16]
*9 io_in[17]
*10 io_in[18]
*11 io_in[19]
*12 io_in[1]
*13 io_in[20]
*14 io_in[21]
*15 io_in[22]
*16 io_in[23]
*17 io_in[24]
*18 io_in[25]
*19 io_in[26]
*20 io_in[27]
*21 io_in[28]
*22 io_in[29]
*23 io_in[2]
*24 io_in[30]
*25 io_in[31]
*26 io_in[32]
*27 io_in[33]
*28 io_in[34]
*29 io_in[35]
*30 io_in[36]
*31 io_in[37]
*32 io_in[3]
*33 io_in[4]
*34 io_in[5]
*35 io_in[6]
*36 io_in[7]
*37 io_in[8]
*38 io_in[9]
*39 io_oeb[0]
*40 io_oeb[10]
*41 io_oeb[11]
*42 io_oeb[12]
*43 io_oeb[13]
*44 io_oeb[14]
*45 io_oeb[15]
*46 io_oeb[16]
*47 io_oeb[17]
*48 io_oeb[18]
*49 io_oeb[19]
*50 io_oeb[1]
*51 io_oeb[20]
*52 io_oeb[21]
*53 io_oeb[22]
*54 io_oeb[23]
*55 io_oeb[24]
*56 io_oeb[25]
*57 io_oeb[26]
*58 io_oeb[27]
*59 io_oeb[28]
*60 io_oeb[29]
*61 io_oeb[2]
*62 io_oeb[30]
*63 io_oeb[31]
*64 io_oeb[32]
*65 io_oeb[33]
*66 io_oeb[34]
*67 io_oeb[35]
*68 io_oeb[36]
*69 io_oeb[37]
*70 io_oeb[3]
*71 io_oeb[4]
*72 io_oeb[5]
*73 io_oeb[6]
*74 io_oeb[7]
*75 io_oeb[8]
*76 io_oeb[9]
*77 io_out[0]
*78 io_out[10]
*79 io_out[11]
*80 io_out[12]
*81 io_out[13]
*82 io_out[14]
*83 io_out[15]
*84 io_out[16]
*85 io_out[17]
*86 io_out[18]
*87 io_out[19]
*88 io_out[1]
*89 io_out[20]
*90 io_out[21]
*91 io_out[22]
*92 io_out[23]
*93 io_out[24]
*94 io_out[25]
*95 io_out[26]
*96 io_out[27]
*97 io_out[28]
*98 io_out[29]
*99 io_out[2]
*100 io_out[30]
*101 io_out[31]
*102 io_out[32]
*103 io_out[33]
*104 io_out[34]
*105 io_out[35]
*106 io_out[36]
*107 io_out[37]
*108 io_out[3]
*109 io_out[4]
*110 io_out[5]
*111 io_out[6]
*112 io_out[7]
*113 io_out[8]
*114 io_out[9]
*115 la_data_in[0]
*116 la_data_in[10]
*117 la_data_in[11]
*118 la_data_in[12]
*119 la_data_in[13]
*120 la_data_in[14]
*121 la_data_in[15]
*122 la_data_in[16]
*123 la_data_in[17]
*124 la_data_in[18]
*125 la_data_in[19]
*126 la_data_in[1]
*127 la_data_in[20]
*128 la_data_in[21]
*129 la_data_in[22]
*130 la_data_in[23]
*131 la_data_in[24]
*132 la_data_in[25]
*133 la_data_in[26]
*134 la_data_in[27]
*135 la_data_in[28]
*136 la_data_in[29]
*137 la_data_in[2]
*138 la_data_in[30]
*139 la_data_in[31]
*140 la_data_in[32]
*141 la_data_in[33]
*142 la_data_in[34]
*143 la_data_in[35]
*144 la_data_in[36]
*145 la_data_in[37]
*146 la_data_in[38]
*147 la_data_in[39]
*148 la_data_in[3]
*149 la_data_in[40]
*150 la_data_in[41]
*151 la_data_in[42]
*152 la_data_in[43]
*153 la_data_in[44]
*154 la_data_in[45]
*155 la_data_in[46]
*156 la_data_in[47]
*157 la_data_in[48]
*158 la_data_in[49]
*159 la_data_in[4]
*160 la_data_in[50]
*161 la_data_in[51]
*162 la_data_in[52]
*163 la_data_in[53]
*164 la_data_in[54]
*165 la_data_in[55]
*166 la_data_in[56]
*167 la_data_in[57]
*168 la_data_in[58]
*169 la_data_in[59]
*170 la_data_in[5]
*171 la_data_in[60]
*172 la_data_in[61]
*173 la_data_in[62]
*174 la_data_in[63]
*175 la_data_in[6]
*176 la_data_in[7]
*177 la_data_in[8]
*178 la_data_in[9]
*179 la_data_out[0]
*180 la_data_out[10]
*181 la_data_out[11]
*182 la_data_out[12]
*183 la_data_out[13]
*184 la_data_out[14]
*185 la_data_out[15]
*186 la_data_out[16]
*187 la_data_out[17]
*188 la_data_out[18]
*189 la_data_out[19]
*190 la_data_out[1]
*191 la_data_out[20]
*192 la_data_out[21]
*193 la_data_out[22]
*194 la_data_out[23]
*195 la_data_out[24]
*196 la_data_out[25]
*197 la_data_out[26]
*198 la_data_out[27]
*199 la_data_out[28]
*200 la_data_out[29]
*201 la_data_out[2]
*202 la_data_out[30]
*203 la_data_out[31]
*204 la_data_out[32]
*205 la_data_out[33]
*206 la_data_out[34]
*207 la_data_out[35]
*208 la_data_out[36]
*209 la_data_out[37]
*210 la_data_out[38]
*211 la_data_out[39]
*212 la_data_out[3]
*213 la_data_out[40]
*214 la_data_out[41]
*215 la_data_out[42]
*216 la_data_out[43]
*217 la_data_out[44]
*218 la_data_out[45]
*219 la_data_out[46]
*220 la_data_out[47]
*221 la_data_out[48]
*222 la_data_out[49]
*223 la_data_out[4]
*224 la_data_out[50]
*225 la_data_out[51]
*226 la_data_out[52]
*227 la_data_out[53]
*228 la_data_out[54]
*229 la_data_out[55]
*230 la_data_out[56]
*231 la_data_out[57]
*232 la_data_out[58]
*233 la_data_out[59]
*234 la_data_out[5]
*235 la_data_out[60]
*236 la_data_out[61]
*237 la_data_out[62]
*238 la_data_out[63]
*239 la_data_out[6]
*240 la_data_out[7]
*241 la_data_out[8]
*242 la_data_out[9]
*243 la_oenb[0]
*244 la_oenb[10]
*245 la_oenb[11]
*246 la_oenb[12]
*247 la_oenb[13]
*248 la_oenb[14]
*249 la_oenb[15]
*250 la_oenb[16]
*251 la_oenb[17]
*252 la_oenb[18]
*253 la_oenb[19]
*254 la_oenb[1]
*255 la_oenb[20]
*256 la_oenb[21]
*257 la_oenb[22]
*258 la_oenb[23]
*259 la_oenb[24]
*260 la_oenb[25]
*261 la_oenb[26]
*262 la_oenb[27]
*263 la_oenb[28]
*264 la_oenb[29]
*265 la_oenb[2]
*266 la_oenb[30]
*267 la_oenb[31]
*268 la_oenb[32]
*269 la_oenb[33]
*270 la_oenb[34]
*271 la_oenb[35]
*272 la_oenb[36]
*273 la_oenb[37]
*274 la_oenb[38]
*275 la_oenb[39]
*276 la_oenb[3]
*277 la_oenb[40]
*278 la_oenb[41]
*279 la_oenb[42]
*280 la_oenb[43]
*281 la_oenb[44]
*282 la_oenb[45]
*283 la_oenb[46]
*284 la_oenb[47]
*285 la_oenb[48]
*286 la_oenb[49]
*287 la_oenb[4]
*288 la_oenb[50]
*289 la_oenb[51]
*290 la_oenb[52]
*291 la_oenb[53]
*292 la_oenb[54]
*293 la_oenb[55]
*294 la_oenb[56]
*295 la_oenb[57]
*296 la_oenb[58]
*297 la_oenb[59]
*298 la_oenb[5]
*299 la_oenb[60]
*300 la_oenb[61]
*301 la_oenb[62]
*302 la_oenb[63]
*303 la_oenb[6]
*304 la_oenb[7]
*305 la_oenb[8]
*306 la_oenb[9]
*307 user_clock2
*308 user_irq[0]
*309 user_irq[1]
*310 user_irq[2]
*313 wb_clk_i
*314 wb_rst_i
*315 wbs_ack_o
*316 wbs_adr_i[0]
*317 wbs_adr_i[10]
*318 wbs_adr_i[11]
*319 wbs_adr_i[12]
*320 wbs_adr_i[13]
*321 wbs_adr_i[14]
*322 wbs_adr_i[15]
*323 wbs_adr_i[16]
*324 wbs_adr_i[17]
*325 wbs_adr_i[18]
*326 wbs_adr_i[19]
*327 wbs_adr_i[1]
*328 wbs_adr_i[20]
*329 wbs_adr_i[21]
*330 wbs_adr_i[22]
*331 wbs_adr_i[23]
*332 wbs_adr_i[24]
*333 wbs_adr_i[25]
*334 wbs_adr_i[26]
*335 wbs_adr_i[27]
*336 wbs_adr_i[28]
*337 wbs_adr_i[29]
*338 wbs_adr_i[2]
*339 wbs_adr_i[30]
*340 wbs_adr_i[31]
*341 wbs_adr_i[3]
*342 wbs_adr_i[4]
*343 wbs_adr_i[5]
*344 wbs_adr_i[6]
*345 wbs_adr_i[7]
*346 wbs_adr_i[8]
*347 wbs_adr_i[9]
*348 wbs_cyc_i
*349 wbs_dat_i[0]
*350 wbs_dat_i[10]
*351 wbs_dat_i[11]
*352 wbs_dat_i[12]
*353 wbs_dat_i[13]
*354 wbs_dat_i[14]
*355 wbs_dat_i[15]
*356 wbs_dat_i[16]
*357 wbs_dat_i[17]
*358 wbs_dat_i[18]
*359 wbs_dat_i[19]
*360 wbs_dat_i[1]
*361 wbs_dat_i[20]
*362 wbs_dat_i[21]
*363 wbs_dat_i[22]
*364 wbs_dat_i[23]
*365 wbs_dat_i[24]
*366 wbs_dat_i[25]
*367 wbs_dat_i[26]
*368 wbs_dat_i[27]
*369 wbs_dat_i[28]
*370 wbs_dat_i[29]
*371 wbs_dat_i[2]
*372 wbs_dat_i[30]
*373 wbs_dat_i[31]
*374 wbs_dat_i[3]
*375 wbs_dat_i[4]
*376 wbs_dat_i[5]
*377 wbs_dat_i[6]
*378 wbs_dat_i[7]
*379 wbs_dat_i[8]
*380 wbs_dat_i[9]
*381 wbs_dat_o[0]
*382 wbs_dat_o[10]
*383 wbs_dat_o[11]
*384 wbs_dat_o[12]
*385 wbs_dat_o[13]
*386 wbs_dat_o[14]
*387 wbs_dat_o[15]
*388 wbs_dat_o[16]
*389 wbs_dat_o[17]
*390 wbs_dat_o[18]
*391 wbs_dat_o[19]
*392 wbs_dat_o[1]
*393 wbs_dat_o[20]
*394 wbs_dat_o[21]
*395 wbs_dat_o[22]
*396 wbs_dat_o[23]
*397 wbs_dat_o[24]
*398 wbs_dat_o[25]
*399 wbs_dat_o[26]
*400 wbs_dat_o[27]
*401 wbs_dat_o[28]
*402 wbs_dat_o[29]
*403 wbs_dat_o[2]
*404 wbs_dat_o[30]
*405 wbs_dat_o[31]
*406 wbs_dat_o[3]
*407 wbs_dat_o[4]
*408 wbs_dat_o[5]
*409 wbs_dat_o[6]
*410 wbs_dat_o[7]
*411 wbs_dat_o[8]
*412 wbs_dat_o[9]
*413 wbs_sel_i[0]
*414 wbs_sel_i[1]
*415 wbs_sel_i[2]
*416 wbs_sel_i[3]
*417 wbs_stb_i
*418 wbs_we_i
*419 mprj

*PORTS
io_in[0] I
io_in[10] I
io_in[11] I
io_in[12] I
io_in[13] I
io_in[14] I
io_in[15] I
io_in[16] I
io_in[17] I
io_in[18] I
io_in[19] I
io_in[1] I
io_in[20] I
io_in[21] I
io_in[22] I
io_in[23] I
io_in[24] I
io_in[25] I
io_in[26] I
io_in[27] I
io_in[28] I
io_in[29] I
io_in[2] I
io_in[30] I
io_in[31] I
io_in[32] I
io_in[33] I
io_in[34] I
io_in[35] I
io_in[36] I
io_in[37] I
io_in[3] I
io_in[4] I
io_in[5] I
io_in[6] I
io_in[7] I
io_in[8] I
io_in[9] I
io_oeb[0] O
io_oeb[10] O
io_oeb[11] O
io_oeb[12] O
io_oeb[13] O
io_oeb[14] O
io_oeb[15] O
io_oeb[16] O
io_oeb[17] O
io_oeb[18] O
io_oeb[19] O
io_oeb[1] O
io_oeb[20] O
io_oeb[21] O
io_oeb[22] O
io_oeb[23] O
io_oeb[24] O
io_oeb[25] O
io_oeb[26] O
io_oeb[27] O
io_oeb[28] O
io_oeb[29] O
io_oeb[2] O
io_oeb[30] O
io_oeb[31] O
io_oeb[32] O
io_oeb[33] O
io_oeb[34] O
io_oeb[35] O
io_oeb[36] O
io_oeb[37] O
io_oeb[3] O
io_oeb[4] O
io_oeb[5] O
io_oeb[6] O
io_oeb[7] O
io_oeb[8] O
io_oeb[9] O
io_out[0] O
io_out[10] O
io_out[11] O
io_out[12] O
io_out[13] O
io_out[14] O
io_out[15] O
io_out[16] O
io_out[17] O
io_out[18] O
io_out[19] O
io_out[1] O
io_out[20] O
io_out[21] O
io_out[22] O
io_out[23] O
io_out[24] O
io_out[25] O
io_out[26] O
io_out[27] O
io_out[28] O
io_out[29] O
io_out[2] O
io_out[30] O
io_out[31] O
io_out[32] O
io_out[33] O
io_out[34] O
io_out[35] O
io_out[36] O
io_out[37] O
io_out[3] O
io_out[4] O
io_out[5] O
io_out[6] O
io_out[7] O
io_out[8] O
io_out[9] O
la_data_in[0] I
la_data_in[10] I
la_data_in[11] I
la_data_in[12] I
la_data_in[13] I
la_data_in[14] I
la_data_in[15] I
la_data_in[16] I
la_data_in[17] I
la_data_in[18] I
la_data_in[19] I
la_data_in[1] I
la_data_in[20] I
la_data_in[21] I
la_data_in[22] I
la_data_in[23] I
la_data_in[24] I
la_data_in[25] I
la_data_in[26] I
la_data_in[27] I
la_data_in[28] I
la_data_in[29] I
la_data_in[2] I
la_data_in[30] I
la_data_in[31] I
la_data_in[32] I
la_data_in[33] I
la_data_in[34] I
la_data_in[35] I
la_data_in[36] I
la_data_in[37] I
la_data_in[38] I
la_data_in[39] I
la_data_in[3] I
la_data_in[40] I
la_data_in[41] I
la_data_in[42] I
la_data_in[43] I
la_data_in[44] I
la_data_in[45] I
la_data_in[46] I
la_data_in[47] I
la_data_in[48] I
la_data_in[49] I
la_data_in[4] I
la_data_in[50] I
la_data_in[51] I
la_data_in[52] I
la_data_in[53] I
la_data_in[54] I
la_data_in[55] I
la_data_in[56] I
la_data_in[57] I
la_data_in[58] I
la_data_in[59] I
la_data_in[5] I
la_data_in[60] I
la_data_in[61] I
la_data_in[62] I
la_data_in[63] I
la_data_in[6] I
la_data_in[7] I
la_data_in[8] I
la_data_in[9] I
la_data_out[0] O
la_data_out[10] O
la_data_out[11] O
la_data_out[12] O
la_data_out[13] O
la_data_out[14] O
la_data_out[15] O
la_data_out[16] O
la_data_out[17] O
la_data_out[18] O
la_data_out[19] O
la_data_out[1] O
la_data_out[20] O
la_data_out[21] O
la_data_out[22] O
la_data_out[23] O
la_data_out[24] O
la_data_out[25] O
la_data_out[26] O
la_data_out[27] O
la_data_out[28] O
la_data_out[29] O
la_data_out[2] O
la_data_out[30] O
la_data_out[31] O
la_data_out[32] O
la_data_out[33] O
la_data_out[34] O
la_data_out[35] O
la_data_out[36] O
la_data_out[37] O
la_data_out[38] O
la_data_out[39] O
la_data_out[3] O
la_data_out[40] O
la_data_out[41] O
la_data_out[42] O
la_data_out[43] O
la_data_out[44] O
la_data_out[45] O
la_data_out[46] O
la_data_out[47] O
la_data_out[48] O
la_data_out[49] O
la_data_out[4] O
la_data_out[50] O
la_data_out[51] O
la_data_out[52] O
la_data_out[53] O
la_data_out[54] O
la_data_out[55] O
la_data_out[56] O
la_data_out[57] O
la_data_out[58] O
la_data_out[59] O
la_data_out[5] O
la_data_out[60] O
la_data_out[61] O
la_data_out[62] O
la_data_out[63] O
la_data_out[6] O
la_data_out[7] O
la_data_out[8] O
la_data_out[9] O
la_oenb[0] I
la_oenb[10] I
la_oenb[11] I
la_oenb[12] I
la_oenb[13] I
la_oenb[14] I
la_oenb[15] I
la_oenb[16] I
la_oenb[17] I
la_oenb[18] I
la_oenb[19] I
la_oenb[1] I
la_oenb[20] I
la_oenb[21] I
la_oenb[22] I
la_oenb[23] I
la_oenb[24] I
la_oenb[25] I
la_oenb[26] I
la_oenb[27] I
la_oenb[28] I
la_oenb[29] I
la_oenb[2] I
la_oenb[30] I
la_oenb[31] I
la_oenb[32] I
la_oenb[33] I
la_oenb[34] I
la_oenb[35] I
la_oenb[36] I
la_oenb[37] I
la_oenb[38] I
la_oenb[39] I
la_oenb[3] I
la_oenb[40] I
la_oenb[41] I
la_oenb[42] I
la_oenb[43] I
la_oenb[44] I
la_oenb[45] I
la_oenb[46] I
la_oenb[47] I
la_oenb[48] I
la_oenb[49] I
la_oenb[4] I
la_oenb[50] I
la_oenb[51] I
la_oenb[52] I
la_oenb[53] I
la_oenb[54] I
la_oenb[55] I
la_oenb[56] I
la_oenb[57] I
la_oenb[58] I
la_oenb[59] I
la_oenb[5] I
la_oenb[60] I
la_oenb[61] I
la_oenb[62] I
la_oenb[63] I
la_oenb[6] I
la_oenb[7] I
la_oenb[8] I
la_oenb[9] I
user_clock2 I
user_irq[0] O
user_irq[1] O
user_irq[2] O
wb_clk_i I
wb_rst_i I
wbs_ack_o O
wbs_adr_i[0] I
wbs_adr_i[10] I
wbs_adr_i[11] I
wbs_adr_i[12] I
wbs_adr_i[13] I
wbs_adr_i[14] I
wbs_adr_i[15] I
wbs_adr_i[16] I
wbs_adr_i[17] I
wbs_adr_i[18] I
wbs_adr_i[19] I
wbs_adr_i[1] I
wbs_adr_i[20] I
wbs_adr_i[21] I
wbs_adr_i[22] I
wbs_adr_i[23] I
wbs_adr_i[24] I
wbs_adr_i[25] I
wbs_adr_i[26] I
wbs_adr_i[27] I
wbs_adr_i[28] I
wbs_adr_i[29] I
wbs_adr_i[2] I
wbs_adr_i[30] I
wbs_adr_i[31] I
wbs_adr_i[3] I
wbs_adr_i[4] I
wbs_adr_i[5] I
wbs_adr_i[6] I
wbs_adr_i[7] I
wbs_adr_i[8] I
wbs_adr_i[9] I
wbs_cyc_i I
wbs_dat_i[0] I
wbs_dat_i[10] I
wbs_dat_i[11] I
wbs_dat_i[12] I
wbs_dat_i[13] I
wbs_dat_i[14] I
wbs_dat_i[15] I
wbs_dat_i[16] I
wbs_dat_i[17] I
wbs_dat_i[18] I
wbs_dat_i[19] I
wbs_dat_i[1] I
wbs_dat_i[20] I
wbs_dat_i[21] I
wbs_dat_i[22] I
wbs_dat_i[23] I
wbs_dat_i[24] I
wbs_dat_i[25] I
wbs_dat_i[26] I
wbs_dat_i[27] I
wbs_dat_i[28] I
wbs_dat_i[29] I
wbs_dat_i[2] I
wbs_dat_i[30] I
wbs_dat_i[31] I
wbs_dat_i[3] I
wbs_dat_i[4] I
wbs_dat_i[5] I
wbs_dat_i[6] I
wbs_dat_i[7] I
wbs_dat_i[8] I
wbs_dat_i[9] I
wbs_dat_o[0] O
wbs_dat_o[10] O
wbs_dat_o[11] O
wbs_dat_o[12] O
wbs_dat_o[13] O
wbs_dat_o[14] O
wbs_dat_o[15] O
wbs_dat_o[16] O
wbs_dat_o[17] O
wbs_dat_o[18] O
wbs_dat_o[19] O
wbs_dat_o[1] O
wbs_dat_o[20] O
wbs_dat_o[21] O
wbs_dat_o[22] O
wbs_dat_o[23] O
wbs_dat_o[24] O
wbs_dat_o[25] O
wbs_dat_o[26] O
wbs_dat_o[27] O
wbs_dat_o[28] O
wbs_dat_o[29] O
wbs_dat_o[2] O
wbs_dat_o[30] O
wbs_dat_o[31] O
wbs_dat_o[3] O
wbs_dat_o[4] O
wbs_dat_o[5] O
wbs_dat_o[6] O
wbs_dat_o[7] O
wbs_dat_o[8] O
wbs_dat_o[9] O
wbs_sel_i[0] I
wbs_sel_i[1] I
wbs_sel_i[2] I
wbs_sel_i[3] I
wbs_stb_i I
wbs_we_i I

*D_NET *1 0.508915
*CONN
*P io_in[0] I
*I *419:io_in[0] I *D pwm_wb
*CAP
1 io_in[0] 0.00477275
2 *419:io_in[0] 0.00023556
3 *1:12 0.0501934
4 *1:11 0.0499579
5 *1:9 0.0691197
6 *1:7 0.0738924
7 *419:io_in[0] *67:17 0.000324263
8 *1:9 la_data_out[19] 0
9 *1:9 la_data_out[20] 0.00311728
10 *1:9 *122:10 0.00148735
11 *1:9 *123:10 0.000535888
12 *1:9 *132:8 0
13 *1:9 *139:10 0.00114385
14 *1:9 *176:10 0
15 *1:9 *177:8 0.00214169
16 *1:9 *184:8 0
17 *1:9 *234:14 0
18 *1:9 *267:10 0.000476631
19 *1:9 *267:12 0
20 *1:9 *271:8 0
21 *1:9 *290:8 0
22 *1:9 *292:8 0
23 *1:9 *298:8 0
24 *1:9 *305:8 0
25 *1:9 *391:8 0
26 *1:9 *411:14 0
27 *1:12 *99:11 0.225401
28 *1:12 *159:11 0.026115
29 *1:12 *314:24 0
*RES
1 io_in[0] *1:7 37.305 
2 *1:7 *1:9 542.7 
3 *1:9 *1:11 4.5 
4 *1:11 *1:12 724.05 
5 *1:12 *419:io_in[0] 1.845 
*END

*D_NET *2 0.280969
*CONN
*P io_in[10] I
*I *419:io_in[10] I *D pwm_wb
*CAP
1 io_in[10] 0.000276945
2 *419:io_in[10] 0.00181552
3 *2:11 0.0409365
4 *2:10 0.039121
5 *2:8 0.00580817
6 *2:7 0.00608512
7 *419:io_in[10] *419:io_in[9] 0.000502477
8 *419:io_in[10] *40:11 0.00149108
9 *2:8 *35:8 0.0348329
10 *2:11 *419:io_in[35] 0.00134702
11 *2:11 *419:io_in[36] 0.0102423
12 *2:11 *38:19 0.0854432
13 *2:11 *40:12 0.000503485
14 *2:11 *60:8 0.0525633
*RES
1 io_in[10] *2:7 6.705 
2 *2:7 *2:8 88.65 
3 *2:8 *2:10 4.5 
4 *2:10 *2:11 486.27 
5 *2:11 *419:io_in[10] 31.6898 
*END

*D_NET *3 0.249723
*CONN
*P io_in[11] I
*I *419:io_in[11] I *D pwm_wb
*CAP
1 io_in[11] 0.000363112
2 *419:io_in[11] 0
3 *3:19 0.00158872
4 *3:18 0.00462982
5 *3:13 0.0481171
6 *3:11 0.0454391
7 *3:18 *29:16 0.00070672
8 *3:19 *26:19 0.00513013
9 *3:19 *50:5 0.0841412
10 *3:19 *59:5 0.0523189
11 *3:19 *61:11 0.000641576
12 *3:19 *67:5 0.00320283
13 *3:19 *68:15 0.00344408
*RES
1 io_in[11] *3:11 3.195 
2 *3:11 *3:13 283.77 
3 *3:13 *3:18 34.29 
4 *3:18 *3:19 210.69 
5 *3:19 *419:io_in[11] 4.5 
*END

*D_NET *4 0.141552
*CONN
*P io_in[12] I
*I *419:io_in[12] I *D pwm_wb
*CAP
1 io_in[12] 0.000167227
2 *419:io_in[12] 0.0049742
3 *4:21 0.00694078
4 *4:13 0.0630486
5 *4:11 0.0612493
6 *4:13 *6:11 0
7 *4:13 *82:16 0
8 *4:21 *419:io_in[14] 0
9 *4:21 *43:7 0
10 *4:21 *62:14 0.00478051
11 *4:21 *81:20 0.000391541
*RES
1 io_in[12] *4:11 2.115 
2 *4:11 *4:13 475.47 
3 *4:13 *4:21 33.66 
4 *4:21 *419:io_in[12] 31.995 
*END

*D_NET *5 0.207063
*CONN
*P io_in[13] I
*I *419:io_in[13] I *D pwm_wb
*CAP
1 io_in[13] 0.000488137
2 *419:io_in[13] 0.00299797
3 *5:11 0.0587837
4 *5:10 0.0557857
5 *5:8 0.000851475
6 *5:7 0.00133961
7 *419:io_in[13] *42:11 0
8 *419:io_in[13] *87:11 0.00882606
9 *5:8 *6:8 0.000944527
10 *5:8 *7:11 0.0281668
11 *5:8 *35:8 0
12 *5:8 *43:11 0.023947
13 *5:11 *13:8 0.0203295
14 *5:11 *62:14 0
15 *5:11 *64:10 0.00460253
*RES
1 io_in[13] *5:7 8.325 
2 *5:7 *5:8 74.43 
3 *5:8 *5:10 4.5 
4 *5:10 *5:11 475.47 
5 *5:11 *419:io_in[13] 34.065 
*END

*D_NET *6 0.207721
*CONN
*P io_in[14] I
*I *419:io_in[14] I *D pwm_wb
*CAP
1 io_in[14] 0.000661499
2 *419:io_in[14] 0.00613333
3 *6:11 0.063808
4 *6:10 0.0576746
5 *6:8 0.00898063
6 *6:7 0.00964213
7 *419:io_in[14] *44:13 0
8 *419:io_in[14] *80:15 1.82756e-05
9 *419:io_in[14] *81:20 0
10 *6:8 *7:11 0.00249159
11 *6:8 *43:11 0.0406509
12 *6:11 *80:15 9.74538e-05
13 *6:11 *82:16 0.0166184
14 *6:11 *103:14 0
15 *4:13 *6:11 0
16 *4:21 *419:io_in[14] 0
17 *5:8 *6:8 0.000944527
*RES
1 io_in[14] *6:7 8.685 
2 *6:7 *6:8 130.05 
3 *6:8 *6:10 4.5 
4 *6:10 *6:11 469.71 
5 *6:11 *419:io_in[14] 44.595 
*END

*D_NET *7 0.264588
*CONN
*P io_in[15] I
*I *419:io_in[15] I *D pwm_wb
*CAP
1 io_in[15] 0.00281871
2 *419:io_in[15] 0.00530354
3 *7:14 0.064612
4 *7:13 0.0593085
5 *7:11 0.01558
6 *7:10 0.0183987
7 *7:11 *35:8 0
8 *7:11 *43:11 0.00753363
9 *7:14 *35:11 0
10 *7:14 *44:14 0.0603742
11 *7:14 *62:14 0
12 *5:8 *7:11 0.0281668
13 *6:8 *7:11 0.00249159
*RES
1 io_in[15] *7:10 31.635 
2 *7:10 *7:11 180.45 
3 *7:11 *7:13 4.5 
4 *7:13 *7:14 462.33 
5 *7:14 *419:io_in[15] 38.835 
*END

*D_NET *8 0.146076
*CONN
*P io_in[16] I
*I *419:io_in[16] I *D pwm_wb
*CAP
1 io_in[16] 0.000247817
2 *419:io_in[16] 0.000166616
3 *8:19 0.00822066
4 *8:18 0.00805404
5 *8:16 0.0427815
6 *8:15 0.0427815
7 *8:13 0.0217879
8 *8:11 0.0220357
9 *8:19 *83:7 0
*RES
1 io_in[16] *8:11 2.655 
2 *8:11 *8:13 167.67 
3 *8:13 *8:15 4.5 
4 *8:15 *8:16 332.19 
5 *8:16 *8:18 4.5 
6 *8:18 *8:19 53.91 
7 *8:19 *419:io_in[16] 1.305 
*END

*D_NET *9 0.129638
*CONN
*P io_in[17] I
*I *419:io_in[17] I *D pwm_wb
*CAP
1 io_in[17] 0.001352
2 *419:io_in[17] 9.76714e-05
3 *9:17 0.0205826
4 *9:16 0.020485
5 *9:14 0.0343758
6 *9:13 0.0343758
7 *9:11 0.00838104
8 *9:10 0.00973304
9 *9:10 *46:14 0.000254726
10 *9:17 *46:11 0
11 *9:17 *84:7 0
*RES
1 io_in[17] *9:10 19.935 
2 *9:10 *9:11 64.35 
3 *9:11 *9:13 4.5 
4 *9:13 *9:14 217.35 
5 *9:14 *9:16 4.5 
6 *9:16 *9:17 148.41 
7 *9:17 *419:io_in[17] 0.765 
*END

*D_NET *10 0.0916276
*CONN
*P io_in[18] I
*I *419:io_in[18] I *D pwm_wb
*CAP
1 io_in[18] 0.00149286
2 *419:io_in[18] 0.00239233
3 *10:19 0.00708285
4 *10:14 0.0169829
5 *10:13 0.0122924
6 *10:11 0.0219651
7 *10:10 0.023458
8 *10:10 *46:14 0
9 *10:14 *51:14 0.00596103
10 *10:14 *95:10 0
*RES
1 io_in[18] *10:10 19.755 
2 *10:10 *10:11 168.57 
3 *10:11 *10:13 4.5 
4 *10:13 *10:14 101.25 
5 *10:14 *10:19 36.09 
6 *10:19 *419:io_in[18] 14.715 
*END

*D_NET *11 0.0626707
*CONN
*P io_in[19] I
*I *419:io_in[19] I *D pwm_wb
*CAP
1 io_in[19] 0.00219428
2 *419:io_in[19] 0.00270869
3 *11:11 0.029141
4 *11:10 0.0286266
5 *419:io_in[19] *49:16 0
6 *11:10 *46:14 0
7 *11:11 *86:9 0
*RES
1 io_in[19] *11:10 25.695 
2 *11:10 *11:11 197.1 
3 *11:11 *419:io_in[19] 17.055 
*END

*D_NET *12 0.883084
*CONN
*P io_in[1] I
*I *419:io_in[1] I *D pwm_wb
*CAP
1 io_in[1] 0.000526851
2 *419:io_in[1] 0.00212856
3 *12:11 0.0269862
4 *12:10 0.0248576
5 *12:8 0.00197007
6 *12:7 0.00249692
7 *12:8 *39:17 0.264385
8 *12:8 *70:11 8.12571e-05
9 *12:8 *88:11 0.254893
10 *12:8 *302:11 0
11 *12:11 *27:19 0.00329135
12 *12:11 *70:8 0.218406
13 *12:11 *97:8 0.0830604
*RES
1 io_in[1] *12:7 8.505 
2 *12:7 *12:8 672.75 
3 *12:8 *12:10 4.5 
4 *12:10 *12:11 566.01 
5 *12:11 *419:io_in[1] 16.785 
*END

*D_NET *13 0.105975
*CONN
*P io_in[20] I
*I *419:io_in[20] I *D pwm_wb
*CAP
1 io_in[20] 0.0251309
2 *419:io_in[20] 0.00477947
3 *13:8 0.0174854
4 *13:7 0.0127059
5 *13:5 0.0251309
6 *419:io_in[20] *48:11 0
7 *419:io_in[20] *51:13 0.000412924
8 *419:io_in[20] *87:7 0
9 *13:8 *62:14 0
10 *13:8 *64:10 0
11 *5:11 *13:8 0.0203295
*RES
1 io_in[20] *13:5 191.745 
2 *13:5 *13:7 4.5 
3 *13:7 *13:8 121.59 
4 *13:8 *419:io_in[20] 36.315 
*END

*D_NET *14 0.120878
*CONN
*P io_in[21] I
*I *419:io_in[21] I *D pwm_wb
*CAP
1 io_in[21] 0.00146538
2 *419:io_in[21] 0.000166616
3 *14:17 0.0237916
4 *14:16 0.023625
5 *14:14 0.0299525
6 *14:13 0.0351822
7 *14:10 0.00669508
8 *14:17 *55:19 0
*RES
1 io_in[21] *14:10 19.935 
2 *14:10 *14:13 44.55 
3 *14:13 *14:14 233.73 
4 *14:14 *14:16 4.5 
5 *14:16 *14:17 172.71 
6 *14:17 *419:io_in[21] 1.305 
*END

*D_NET *15 0.150322
*CONN
*P io_in[22] I
*I *419:io_in[22] I *D pwm_wb
*CAP
1 io_in[22] 0.00487004
2 *419:io_in[22] 9.76714e-05
3 *15:15 0.00851837
4 *15:14 0.0084207
5 *15:12 0.0450437
6 *15:11 0.0450437
7 *15:9 0.0167288
8 *15:7 0.0215989
9 *15:15 *54:11 0
10 *15:15 *90:7 0
*RES
1 io_in[22] *15:7 37.305 
2 *15:7 *15:9 128.34 
3 *15:9 *15:11 4.5 
4 *15:11 *15:12 351.09 
5 *15:12 *15:14 4.5 
6 *15:14 *15:15 56.61 
7 *15:15 *419:io_in[22] 0.765 
*END

*D_NET *16 0.435267
*CONN
*P io_in[23] I
*I *419:io_in[23] I *D pwm_wb
*CAP
1 io_in[23] 0.000539284
2 *419:io_in[23] 0.00119254
3 *16:11 0.0295658
4 *16:10 0.0283732
5 *16:8 0.00263668
6 *16:7 0.00317597
7 *419:io_in[23] *23:11 0.000960533
8 *419:io_in[23] *54:10 0.00039518
9 *16:8 *17:11 0.186643
10 *16:8 *54:14 0.181785
*RES
1 io_in[23] *16:7 8.505 
2 *16:7 *16:8 467.37 
3 *16:8 *16:10 4.5 
4 *16:10 *16:11 211.05 
5 *16:11 *419:io_in[23] 18.135 
*END

*D_NET *17 0.366423
*CONN
*P io_in[24] I
*I *419:io_in[24] I *D pwm_wb
*CAP
1 io_in[24] 0.00210636
2 *419:io_in[24] 0.00123494
3 *17:14 0.0272922
4 *17:13 0.0260572
5 *17:11 0.0337622
6 *17:10 0.0358686
7 *419:io_in[24] *23:11 0.000209308
8 *419:io_in[24] *55:12 0
9 *419:io_in[24] *84:8 2.85813e-05
10 *17:11 *45:14 0.0269586
11 *17:11 *54:14 0.0131521
12 *17:14 *55:12 1.20596e-05
13 *17:14 *55:15 0.0130982
14 *16:8 *17:11 0.186643
*RES
1 io_in[24] *17:10 24.795 
2 *17:10 *17:11 555.21 
3 *17:11 *17:13 4.5 
4 *17:13 *17:14 211.23 
5 *17:14 *419:io_in[24] 16.155 
*END

*D_NET *18 0.218213
*CONN
*P io_in[25] I
*I *419:io_in[25] I *D pwm_wb
*CAP
1 io_in[25] 0.000125876
2 *419:io_in[25] 0.00259849
3 *18:16 0.0193816
4 *18:15 0.0167831
5 *18:13 0.0895991
6 *18:11 0.089725
*RES
1 io_in[25] *18:11 1.395 
2 *18:11 *18:13 566.55 
3 *18:13 *18:15 4.5 
4 *18:15 *18:16 124.38 
5 *18:16 *419:io_in[25] 16.695 
*END

*D_NET *19 0.168513
*CONN
*P io_in[26] I
*I *419:io_in[26] I *D pwm_wb
*CAP
1 io_in[26] 0.00177706
2 *419:io_in[26] 0.000166616
3 *19:12 0.0104841
4 *19:11 0.0103175
5 *19:9 0.0719956
6 *19:7 0.0737726
7 *19:9 *91:10 0
*RES
1 io_in[26] *19:7 13.185 
2 *19:7 *19:9 561.78 
3 *19:9 *19:11 4.5 
4 *19:11 *19:12 71.55 
5 *19:12 *419:io_in[26] 1.305 
*END

*D_NET *20 0.307271
*CONN
*P io_in[27] I
*I *419:io_in[27] I *D pwm_wb
*CAP
1 io_in[27] 0.00035683
2 *419:io_in[27] 0.00021921
3 *20:13 0.0399649
4 *20:11 0.0401025
5 *20:13 *50:5 0
6 *20:13 *60:8 0.226628
*RES
1 io_in[27] *20:11 3.015 
2 *20:11 *20:13 583.47 
3 *20:13 *419:io_in[27] 5.805 
*END

*D_NET *21 0.235833
*CONN
*P io_in[28] I
*I *419:io_in[28] I *D pwm_wb
*CAP
1 io_in[28] 0.0028607
2 *419:io_in[28] 0.000481271
3 *21:19 0.0533606
4 *21:18 0.0528794
5 *21:16 0.00826096
6 *21:15 0.0111217
7 *21:19 *28:19 0.0953899
8 *21:19 *67:17 0
9 *21:19 *79:12 0.0114786
*RES
1 io_in[28] *21:15 26.685 
2 *21:15 *21:16 63.45 
3 *21:16 *21:18 4.5 
4 *21:18 *21:19 571.41 
5 *21:19 *419:io_in[28] 16.29 
*END

*D_NET *22 0.241853
*CONN
*P io_in[29] I
*I *419:io_in[29] I *D pwm_wb
*CAP
1 io_in[29] 0.000177869
2 *419:io_in[29] 0.00121218
3 *22:19 0.0176372
4 *22:18 0.016425
5 *22:16 0.0184972
6 *22:15 0.0184972
7 *22:13 0.0479542
8 *22:11 0.048132
9 *22:16 *77:11 0
10 *22:19 *36:19 0.065975
11 *22:19 *46:10 8.49823e-05
12 *22:19 *88:8 0
13 *22:19 *96:8 0.00725976
*RES
1 io_in[29] *22:11 1.935 
2 *22:11 *22:13 373.41 
3 *22:13 *22:15 4.5 
4 *22:15 *22:16 141.39 
5 *22:16 *22:18 4.5 
6 *22:18 *22:19 225.27 
7 *22:19 *419:io_in[29] 12.105 
*END

*D_NET *23 0.767351
*CONN
*P io_in[2] I
*I *419:io_in[2] I *D pwm_wb
*CAP
1 io_in[2] 0.000462178
2 *419:io_in[2] 0.00100711
3 *23:11 0.0229749
4 *23:10 0.0219678
5 *23:8 0.00276552
6 *23:7 0.0032277
7 *23:8 *32:8 0.00137437
8 *23:8 *50:8 0.234408
9 *23:8 *61:14 0.21736
10 *23:8 *88:11 0.00121315
11 *23:8 *302:11 0.00121604
12 *23:11 *32:11 0.219473
13 *23:11 *51:10 0.00111792
14 *23:11 *54:10 0.0012301
15 *23:11 *83:8 0.00344782
16 *23:11 *84:8 0.0170044
17 *23:11 *87:8 0.00619034
18 *23:11 *90:8 0.00831236
19 *23:11 *96:8 0.00142874
20 *419:io_in[23] *23:11 0.000960533
21 *419:io_in[24] *23:11 0.000209308
*RES
1 io_in[2] *23:7 7.965 
2 *23:7 *23:8 603.45 
3 *23:8 *23:10 4.5 
4 *23:10 *23:11 558.99 
5 *23:11 *419:io_in[2] 11.205 
*END

*D_NET *24 0.255935
*CONN
*P io_in[30] I
*I *419:io_in[30] I *D pwm_wb
*CAP
1 io_in[30] 0.000113196
2 *419:io_in[30] 0.000341436
3 *24:27 0.0104655
4 *24:25 0.010804
5 *24:19 0.00786752
6 *24:18 0.00718758
7 *24:16 0.0266766
8 *24:15 0.0266766
9 *24:13 0.0446417
10 *24:11 0.0447549
11 *419:io_in[30] *62:13 0
12 *24:13 *148:14 0.000856031
13 *24:13 *318:14 0
14 *24:13 *327:12 0
15 *24:13 *337:14 0.00376726
16 *24:13 *355:16 0.00402602
17 *24:13 *410:8 0
18 *24:16 *77:11 0
19 *24:16 *99:11 0
20 *24:19 *419:io_in[9] 0.00105047
21 *24:19 *60:8 0.00420991
22 *24:19 *77:10 0
23 *24:19 *99:10 0.00268744
24 *24:25 *419:io_in[9] 0.00384308
25 *24:25 *40:11 0.000135492
26 *24:27 *419:io_in[9] 0.000905505
27 *24:27 *38:19 2.19964e-05
28 *24:27 *40:11 0.000114202
29 *24:27 *40:12 0.0547782
30 *24:27 *42:10 0
31 *24:27 *60:8 1.05934e-05
*RES
1 io_in[30] *24:11 1.395 
2 *24:11 *24:13 376.11 
3 *24:13 *24:15 4.5 
4 *24:15 *24:16 203.49 
5 *24:16 *24:18 4.5 
6 *24:18 *24:19 77.04 
7 *24:19 *24:25 10.08 
8 *24:25 *24:27 143.73 
9 *24:27 *419:io_in[30] 6.705 
*END

*D_NET *25 0.290967
*CONN
*P io_in[31] I
*I *419:io_in[31] I *D pwm_wb
*CAP
1 io_in[31] 0.00179421
2 *419:io_in[31] 0.00160482
3 *25:15 0.0193358
4 *25:14 0.017731
5 *25:12 0.0345933
6 *25:11 0.0345933
7 *25:9 0.0471361
8 *25:7 0.0489303
9 *25:9 *265:14 0
10 *25:9 *351:14 0
11 *25:12 *126:11 0.00753071
12 *25:12 *265:11 0.000224722
13 *25:15 *37:11 0.0690362
14 *25:15 *65:8 0.00845635
15 *25:15 *97:8 0
*RES
1 io_in[31] *25:7 13.185 
2 *25:7 *25:9 358.38 
3 *25:9 *25:11 4.5 
4 *25:11 *25:12 279.09 
5 *25:12 *25:14 4.5 
6 *25:14 *25:15 242.55 
7 *25:15 *419:io_in[31] 14.805 
*END

*D_NET *26 0.420247
*CONN
*P io_in[32] I
*I *419:io_in[32] I *D pwm_wb
*CAP
1 io_in[32] 0.000323383
2 *419:io_in[32] 0
3 *26:19 0.00121283
4 *26:18 0.00121283
5 *26:16 0.0359604
6 *26:15 0.0359604
7 *26:13 0.0486489
8 *26:11 0.0489723
9 *26:16 *137:11 0.0540212
10 *26:19 *28:19 0
11 *26:19 *59:5 0.0899838
12 *26:19 *61:9 0.000625568
13 *26:19 *61:11 0.000736776
14 *26:19 *67:5 0.0861324
15 *26:19 *67:17 0.0113258
16 *3:19 *26:19 0.00513013
*RES
1 io_in[32] *26:11 3.015 
2 *26:11 *26:13 368.19 
3 *26:13 *26:15 4.5 
4 *26:15 *26:16 338.13 
5 *26:16 *26:18 4.5 
6 *26:18 *26:19 253.17 
7 *26:19 *419:io_in[32] 4.5 
*END

*D_NET *27 0.412618
*CONN
*P io_in[33] I
*I *419:io_in[33] I *D pwm_wb
*CAP
1 io_in[33] 0.000242542
2 *419:io_in[33] 0.00191953
3 *27:19 0.0044703
4 *27:18 0.00255077
5 *27:16 0.0559127
6 *27:15 0.0559127
7 *27:13 0.0482697
8 *27:11 0.0485123
9 *27:13 *201:8 0
10 *27:16 *148:11 0
11 *27:16 *239:11 0
12 *27:19 *63:8 0.0997774
13 *27:19 *70:8 0.0890471
14 *27:19 *97:8 0.00271173
15 *12:11 *27:19 0.00329135
*RES
1 io_in[33] *27:11 2.475 
2 *27:11 *27:13 365.31 
3 *27:13 *27:15 4.5 
4 *27:15 *27:16 419.13 
5 *27:16 *27:18 4.5 
6 *27:18 *27:19 263.61 
7 *27:19 *419:io_in[33] 17.145 
*END

*D_NET *28 0.47548
*CONN
*P io_in[34] I
*I *419:io_in[34] I *D pwm_wb
*CAP
1 io_in[34] 0.000177869
2 *419:io_in[34] 0.000284977
3 *28:19 0.00689374
4 *28:18 0.00660876
5 *28:16 0.0468969
6 *28:15 0.0468969
7 *28:13 0.0467891
8 *28:11 0.046967
9 *28:16 *243:11 0.093716
10 *28:19 *61:9 0
11 *28:19 *61:11 0
12 *28:19 *67:17 0
13 *28:19 *74:9 0.081512
14 *28:19 *79:12 0.0033472
15 *21:19 *28:19 0.0953899
16 *26:19 *28:19 0
*RES
1 io_in[34] *28:11 1.935 
2 *28:11 *28:13 354.69 
3 *28:13 *28:15 4.5 
4 *28:15 *28:16 471.33 
5 *28:16 *28:18 4.5 
6 *28:18 *28:19 281.79 
7 *28:19 *419:io_in[34] 15.39 
*END

*D_NET *29 0.425785
*CONN
*P io_in[35] I
*I *419:io_in[35] I *D pwm_wb
*CAP
1 io_in[35] 0.000113196
2 *419:io_in[35] 0.00212349
3 *29:16 0.0509156
4 *29:15 0.0487921
5 *29:13 0.0897846
6 *29:11 0.0898977
7 *419:io_in[35] *419:io_in[36] 0.00820931
8 *419:io_in[35] *50:5 0
9 *29:16 *144:13 0.133895
10 *2:11 *419:io_in[35] 0.00134702
11 *3:18 *29:16 0.00070672
*RES
1 io_in[35] *29:11 1.395 
2 *29:11 *29:13 672.03 
3 *29:13 *29:15 4.5 
4 *29:15 *29:16 542.79 
5 *29:16 *419:io_in[35] 38.475 
*END

*D_NET *30 0.362306
*CONN
*P io_in[36] I
*I *419:io_in[36] I *D pwm_wb
*CAP
1 io_in[36] 0.00177706
2 *419:io_in[36] 0.000721898
3 *30:12 0.080636
4 *30:11 0.0799141
5 *30:9 0.0887229
6 *30:7 0.0904999
7 *419:io_in[36] *50:5 0
8 *30:12 *208:11 0.00158213
9 *419:io_in[35] *419:io_in[36] 0.00820931
10 *2:11 *419:io_in[36] 0.0102423
*RES
1 io_in[36] *30:7 13.185 
2 *30:7 *30:9 664.38 
3 *30:9 *30:11 4.5 
4 *30:11 *30:12 610.47 
5 *30:12 *419:io_in[36] 36.315 
*END

*D_NET *31 0.486868
*CONN
*P io_in[37] I
*I *419:io_in[37] I *D pwm_wb
*CAP
1 io_in[37] 0.000323383
2 *419:io_in[37] 5.98625e-06
3 *31:16 0.0581049
4 *31:15 0.0580989
5 *31:13 0.0888673
6 *31:11 0.0891907
7 *419:io_in[37] *61:11 0.00309048
8 *419:io_in[37] *68:15 0.00309048
9 *31:13 *206:8 0
10 *31:13 *310:8 0
11 *31:13 *395:8 0
12 *31:16 la_data_out[35] 0.185975
13 *31:16 *71:13 0.000120225
*RES
1 io_in[37] *31:11 3.015 
2 *31:11 *31:13 666.63 
3 *31:13 *31:15 4.5 
4 *31:15 *31:16 678.15 
5 *31:16 *419:io_in[37] 16.65 
*END

*D_NET *32 0.769691